<additional>
    <laneAreaDetector file="e2output.xml" freq="1" friendlyPos="x" id="e2det_-E12_0" lane="-E12_0" length="300" pos="72.70000000000002"/>
    <laneAreaDetector file="e2output.xml" freq="1" friendlyPos="x" id="e2det_-E12_1" lane="-E12_1" length="300" pos="72.70000000000002"/>
    <laneAreaDetector file="e2output.xml" freq="1" friendlyPos="x" id="e2det_-E12_2" lane="-E12_2" length="300" pos="72.70000000000002"/>
    <laneAreaDetector file="e2output.xml" freq="1" friendlyPos="x" id="e2det_-E20_0" lane="-E20_0" length="286.29999999999995" pos="2.273181642920008e-14"/>
    <laneAreaDetector file="e2output.xml" freq="1" friendlyPos="x" id="e2det_-E20_1" lane="-E20_1" length="286.29999999999995" pos="2.273181642920008e-14"/>
    <laneAreaDetector file="e2output.xml" freq="1" friendlyPos="x" id="e2det_-E20_2" lane="-E20_2" length="286.29999999999995" pos="2.273181642920008e-14"/>
    <laneAreaDetector file="e2output.xml" freq="1" friendlyPos="x" id="e2det_E11_0" lane="E11_0" length="300" pos="186.29999999999998"/>
    <laneAreaDetector file="e2output.xml" freq="1" friendlyPos="x" id="e2det_E11_1" lane="E11_1" length="300" pos="186.29999999999998"/>
    <laneAreaDetector file="e2output.xml" freq="1" friendlyPos="x" id="e2det_E11_2" lane="E11_2" length="300" pos="186.29999999999998"/>
    <laneAreaDetector file="e2output.xml" freq="1" friendlyPos="x" id="e2det_E18_0" lane="E18_0" length="272.7" pos="2.273181642920008e-14"/>
    <laneAreaDetector file="e2output.xml" freq="1" friendlyPos="x" id="e2det_E18_1" lane="E18_1" length="272.7" pos="2.273181642920008e-14"/>
    <laneAreaDetector file="e2output.xml" freq="1" friendlyPos="x" id="e2det_E18_2" lane="E18_2" length="272.7" pos="2.273181642920008e-14"/>
    <laneAreaDetector file="e2output.xml" freq="1" friendlyPos="x" id="e2det_-E14_0" lane="-E14_0" length="286.29999999999995" pos="2.273181642920008e-14"/>
    <laneAreaDetector file="e2output.xml" freq="1" friendlyPos="x" id="e2det_-E14_1" lane="-E14_1" length="286.29999999999995" pos="2.273181642920008e-14"/>
    <laneAreaDetector file="e2output.xml" freq="1" friendlyPos="x" id="e2det_-E14_2" lane="-E14_2" length="286.29999999999995" pos="2.273181642920008e-14"/>
    <laneAreaDetector file="e2output.xml" freq="1" friendlyPos="x" id="e2det_-E21_0" lane="-E21_0" length="286.29999999999995" pos="2.273181642920008e-14"/>
    <laneAreaDetector file="e2output.xml" freq="1" friendlyPos="x" id="e2det_-E21_1" lane="-E21_1" length="286.29999999999995" pos="2.273181642920008e-14"/>
    <laneAreaDetector file="e2output.xml" freq="1" friendlyPos="x" id="e2det_-E21_2" lane="-E21_2" length="286.29999999999995" pos="2.273181642920008e-14"/>
    <laneAreaDetector file="e2output.xml" freq="1" friendlyPos="x" id="e2det_E12_0" lane="E12_0" length="300" pos="72.70000000000002"/>
    <laneAreaDetector file="e2output.xml" freq="1" friendlyPos="x" id="e2det_E12_1" lane="E12_1" length="300" pos="72.70000000000002"/>
    <laneAreaDetector file="e2output.xml" freq="1" friendlyPos="x" id="e2det_E12_2" lane="E12_2" length="300" pos="72.70000000000002"/>
    <laneAreaDetector file="e2output.xml" freq="1" friendlyPos="x" id="e2det_E19_0" lane="E19_0" length="272.7" pos="2.273181642920008e-14"/>
    <laneAreaDetector file="e2output.xml" freq="1" friendlyPos="x" id="e2det_E19_1" lane="E19_1" length="272.7" pos="2.273181642920008e-14"/>
    <laneAreaDetector file="e2output.xml" freq="1" friendlyPos="x" id="e2det_E19_2" lane="E19_2" length="272.7" pos="2.273181642920008e-14"/>
    <laneAreaDetector file="e2output.xml" freq="1" friendlyPos="x" id="e2det_-E16_0" lane="-E16_0" length="300" pos="72.70000000000002"/>
    <laneAreaDetector file="e2output.xml" freq="1" friendlyPos="x" id="e2det_-E16_1" lane="-E16_1" length="300" pos="72.70000000000002"/>
    <laneAreaDetector file="e2output.xml" freq="1" friendlyPos="x" id="e2det_-E16_2" lane="-E16_2" length="300" pos="72.70000000000002"/>
    <laneAreaDetector file="e2output.xml" freq="1" friendlyPos="x" id="e2det_-E18_0" lane="-E18_0" length="272.7" pos="2.273181642920008e-14"/>
    <laneAreaDetector file="e2output.xml" freq="1" friendlyPos="x" id="e2det_-E18_1" lane="-E18_1" length="272.7" pos="2.273181642920008e-14"/>
    <laneAreaDetector file="e2output.xml" freq="1" friendlyPos="x" id="e2det_-E18_2" lane="-E18_2" length="272.7" pos="2.273181642920008e-14"/>
    <laneAreaDetector file="e2output.xml" freq="1" friendlyPos="x" id="e2det_-E22_0" lane="-E22_0" length="286.29999999999995" pos="2.273181642920008e-14"/>
    <laneAreaDetector file="e2output.xml" freq="1" friendlyPos="x" id="e2det_-E22_1" lane="-E22_1" length="286.29999999999995" pos="2.273181642920008e-14"/>
    <laneAreaDetector file="e2output.xml" freq="1" friendlyPos="x" id="e2det_-E22_2" lane="-E22_2" length="286.29999999999995" pos="2.273181642920008e-14"/>
    <laneAreaDetector file="e2output.xml" freq="1" friendlyPos="x" id="e2det_E15_0" lane="E15_0" length="300" pos="186.29999999999998"/>
    <laneAreaDetector file="e2output.xml" freq="1" friendlyPos="x" id="e2det_E15_1" lane="E15_1" length="300" pos="186.29999999999998"/>
    <laneAreaDetector file="e2output.xml" freq="1" friendlyPos="x" id="e2det_E15_2" lane="E15_2" length="300" pos="186.29999999999998"/>
    <laneAreaDetector file="e2output.xml" freq="1" friendlyPos="x" id="e2det_-E17_0" lane="-E17_0" length="286.29999999999995" pos="2.273181642920008e-14"/>
    <laneAreaDetector file="e2output.xml" freq="1" friendlyPos="x" id="e2det_-E17_1" lane="-E17_1" length="286.29999999999995" pos="2.273181642920008e-14"/>
    <laneAreaDetector file="e2output.xml" freq="1" friendlyPos="x" id="e2det_-E17_2" lane="-E17_2" length="286.29999999999995" pos="2.273181642920008e-14"/>
    <laneAreaDetector file="e2output.xml" freq="1" friendlyPos="x" id="e2det_-E19_0" lane="-E19_0" length="272.7" pos="2.273181642920008e-14"/>
    <laneAreaDetector file="e2output.xml" freq="1" friendlyPos="x" id="e2det_-E19_1" lane="-E19_1" length="272.7" pos="2.273181642920008e-14"/>
    <laneAreaDetector file="e2output.xml" freq="1" friendlyPos="x" id="e2det_-E19_2" lane="-E19_2" length="272.7" pos="2.273181642920008e-14"/>
    <laneAreaDetector file="e2output.xml" freq="1" friendlyPos="x" id="e2det_-E23_0" lane="-E23_0" length="286.29999999999995" pos="2.273181642920008e-14"/>
    <laneAreaDetector file="e2output.xml" freq="1" friendlyPos="x" id="e2det_-E23_1" lane="-E23_1" length="286.29999999999995" pos="2.273181642920008e-14"/>
    <laneAreaDetector file="e2output.xml" freq="1" friendlyPos="x" id="e2det_-E23_2" lane="-E23_2" length="286.29999999999995" pos="2.273181642920008e-14"/>
    <laneAreaDetector file="e2output.xml" freq="1" friendlyPos="x" id="e2det_E16_0" lane="E16_0" length="300" pos="72.70000000000002"/>
    <laneAreaDetector file="e2output.xml" freq="1" friendlyPos="x" id="e2det_E16_1" lane="E16_1" length="300" pos="72.70000000000002"/>
    <laneAreaDetector file="e2output.xml" freq="1" friendlyPos="x" id="e2det_E16_2" lane="E16_2" length="300" pos="72.70000000000002"/>
</additional>
