<?xml version="1.0" encoding="UTF-8"?>

<!-- generated on 2023-08-09 08:56:40 by Eclipse SUMO netedit Version 1.15.0
<configuration xmlns:xsi="http://www.w3.org/2001/XMLSchema-instance" xsi:noNamespaceSchemaLocation="http://sumo.dlr.de/xsd/netconvertConfiguration.xsd">

    <input>
        <sumo-net-file value="E:\Program Files\PyWorkstation\sumo多路口\inter.net.xml"/>
    </input>

    <output>
        <output-file value="E:\Program Files\PyWorkstation\sumo多路口\inter.net.xml"/>
    </output>

    <processing>
        <geometry.min-radius.fix.railways value="false"/>
        <geometry.max-grade.fix value="false"/>
        <offset.disable-normalization value="true"/>
        <lefthand value="0"/>
    </processing>

    <junctions>
        <no-turnarounds value="true"/>
        <junctions.corner-detail value="5"/>
        <junctions.limit-turn-speed value="5.50"/>
        <rectangular-lane-cut value="0"/>
    </junctions>

    <pedestrian>
        <walkingareas value="0"/>
    </pedestrian>

</configuration>
-->

<net version="1.9" junctionCornerDetail="5" limitTurnSpeed="5.50" xmlns:xsi="http://www.w3.org/2001/XMLSchema-instance" xsi:noNamespaceSchemaLocation="http://sumo.dlr.de/xsd/net_file.xsd">

    <location netOffset="0.00,0.00" convBoundary="0.00,-300.00,1200.00,600.10" origBoundary="-10000000000.00,-10000000000.00,10000000000.00,10000000000.00" projParameter="!"/>

    <edge id=":J11_0" function="internal">
        <lane id=":J11_0_0" index="0" speed="7.00" length="14.02" shape="0.00,8.00 -6.00,4.00 -8.00,0.00 -6.00,-4.00 0.00,-8.00"/>
        <lane id=":J11_0_1" index="1" speed="5.58" length="14.02" shape="0.00,4.80 -3.60,2.40 -4.80,0.00 -3.60,-2.40 0.00,-4.80"/>
        <lane id=":J11_0_2" index="2" speed="3.65" length="14.02" shape="0.00,1.60 -1.20,0.80 -1.60,0.00 -1.20,-0.80 0.00,-1.60"/>
    </edge>
    <edge id=":J12_0" function="internal">
        <lane id=":J12_0_0" index="0" speed="6.51" length="9.03" shape="492.00,13.60 491.65,11.15 490.60,9.40 488.85,8.35 486.40,8.00"/>
    </edge>
    <edge id=":J12_1" function="internal">
        <lane id=":J12_1_0" index="0" speed="13.89" length="27.20" shape="492.00,13.60 492.00,-13.60"/>
        <lane id=":J12_1_1" index="1" speed="13.89" length="27.20" shape="495.20,13.60 495.20,-13.60"/>
        <lane id=":J12_1_2" index="2" speed="13.89" length="27.20" shape="498.40,13.60 498.40,-13.60"/>
    </edge>
    <edge id=":J12_4" function="internal">
        <lane id=":J12_4_0" index="0" speed="10.36" length="5.01" shape="498.40,13.60 499.11,8.64"/>
    </edge>
    <edge id=":J12_20" function="internal">
        <lane id=":J12_20_0" index="0" speed="10.36" length="19.50" shape="499.11,8.64 499.35,6.95 502.20,2.20 506.95,-0.65 513.60,-1.60"/>
    </edge>
    <edge id=":J12_5" function="internal">
        <lane id=":J12_5_0" index="0" speed="6.51" length="9.03" shape="513.60,8.00 511.15,8.35 509.40,9.40 508.35,11.15 508.00,13.60"/>
    </edge>
    <edge id=":J12_6" function="internal">
        <lane id=":J12_6_0" index="0" speed="13.89" length="27.20" shape="513.60,8.00 486.40,8.00"/>
        <lane id=":J12_6_1" index="1" speed="13.89" length="27.20" shape="513.60,4.80 486.40,4.80"/>
        <lane id=":J12_6_2" index="2" speed="13.89" length="27.20" shape="513.60,1.60 486.40,1.60"/>
    </edge>
    <edge id=":J12_9" function="internal">
        <lane id=":J12_9_0" index="0" speed="10.36" length="5.01" shape="513.60,1.60 508.64,0.89"/>
    </edge>
    <edge id=":J12_21" function="internal">
        <lane id=":J12_21_0" index="0" speed="10.36" length="19.50" shape="508.64,0.89 506.95,0.65 502.20,-2.20 499.35,-6.95 498.40,-13.60"/>
    </edge>
    <edge id=":J12_10" function="internal">
        <lane id=":J12_10_0" index="0" speed="6.51" length="9.03" shape="508.00,-13.60 508.35,-11.15 509.40,-9.40 511.15,-8.35 513.60,-8.00"/>
    </edge>
    <edge id=":J12_11" function="internal">
        <lane id=":J12_11_0" index="0" speed="13.89" length="27.20" shape="508.00,-13.60 508.00,13.60"/>
        <lane id=":J12_11_1" index="1" speed="13.89" length="27.20" shape="504.80,-13.60 504.80,13.60"/>
        <lane id=":J12_11_2" index="2" speed="13.89" length="27.20" shape="501.60,-13.60 501.60,13.60"/>
    </edge>
    <edge id=":J12_14" function="internal">
        <lane id=":J12_14_0" index="0" speed="10.36" length="5.01" shape="501.60,-13.60 500.89,-8.64"/>
    </edge>
    <edge id=":J12_22" function="internal">
        <lane id=":J12_22_0" index="0" speed="10.36" length="19.50" shape="500.89,-8.64 500.65,-6.95 497.80,-2.20 493.05,0.65 486.40,1.60"/>
    </edge>
    <edge id=":J12_15" function="internal">
        <lane id=":J12_15_0" index="0" speed="6.51" length="9.03" shape="486.40,-8.00 488.85,-8.35 490.60,-9.40 491.65,-11.15 492.00,-13.60"/>
    </edge>
    <edge id=":J12_16" function="internal">
        <lane id=":J12_16_0" index="0" speed="13.89" length="27.20" shape="486.40,-8.00 513.60,-8.00"/>
        <lane id=":J12_16_1" index="1" speed="13.89" length="27.20" shape="486.40,-4.80 513.60,-4.80"/>
        <lane id=":J12_16_2" index="2" speed="13.89" length="27.20" shape="486.40,-1.60 513.60,-1.60"/>
    </edge>
    <edge id=":J12_19" function="internal">
        <lane id=":J12_19_0" index="0" speed="10.36" length="5.01" shape="486.40,-1.60 491.36,-0.89"/>
    </edge>
    <edge id=":J12_23" function="internal">
        <lane id=":J12_23_0" index="0" speed="10.36" length="19.50" shape="491.36,-0.89 493.05,-0.65 497.80,2.20 500.65,6.95 501.60,13.60"/>
    </edge>
    <edge id=":J13_0" function="internal">
        <lane id=":J13_0_0" index="0" speed="6.51" length="9.03" shape="892.00,13.60 891.65,11.15 890.60,9.40 888.85,8.35 886.40,8.00"/>
    </edge>
    <edge id=":J13_1" function="internal">
        <lane id=":J13_1_0" index="0" speed="13.89" length="27.20" shape="892.00,13.60 892.00,-13.60"/>
        <lane id=":J13_1_1" index="1" speed="13.89" length="27.20" shape="895.20,13.60 895.20,-13.60"/>
        <lane id=":J13_1_2" index="2" speed="13.89" length="27.20" shape="898.40,13.60 898.40,-13.60"/>
    </edge>
    <edge id=":J13_4" function="internal">
        <lane id=":J13_4_0" index="0" speed="10.36" length="5.01" shape="898.40,13.60 899.11,8.64"/>
    </edge>
    <edge id=":J13_20" function="internal">
        <lane id=":J13_20_0" index="0" speed="10.36" length="19.50" shape="899.11,8.64 899.35,6.95 902.20,2.20 906.95,-0.65 913.60,-1.60"/>
    </edge>
    <edge id=":J13_5" function="internal">
        <lane id=":J13_5_0" index="0" speed="6.51" length="9.03" shape="913.60,8.00 911.15,8.35 909.40,9.40 908.35,11.15 908.00,13.60"/>
    </edge>
    <edge id=":J13_6" function="internal">
        <lane id=":J13_6_0" index="0" speed="13.89" length="27.20" shape="913.60,8.00 886.40,8.00"/>
        <lane id=":J13_6_1" index="1" speed="13.89" length="27.20" shape="913.60,4.80 886.40,4.80"/>
        <lane id=":J13_6_2" index="2" speed="13.89" length="27.20" shape="913.60,1.60 886.40,1.60"/>
    </edge>
    <edge id=":J13_9" function="internal">
        <lane id=":J13_9_0" index="0" speed="10.36" length="5.01" shape="913.60,1.60 908.64,0.89"/>
    </edge>
    <edge id=":J13_21" function="internal">
        <lane id=":J13_21_0" index="0" speed="10.36" length="19.50" shape="908.64,0.89 906.95,0.65 902.20,-2.20 899.35,-6.95 898.40,-13.60"/>
    </edge>
    <edge id=":J13_10" function="internal">
        <lane id=":J13_10_0" index="0" speed="6.51" length="9.03" shape="908.00,-13.60 908.35,-11.15 909.40,-9.40 911.15,-8.35 913.60,-8.00"/>
    </edge>
    <edge id=":J13_11" function="internal">
        <lane id=":J13_11_0" index="0" speed="13.89" length="27.20" shape="908.00,-13.60 908.00,13.60"/>
        <lane id=":J13_11_1" index="1" speed="13.89" length="27.20" shape="904.80,-13.60 904.80,13.60"/>
        <lane id=":J13_11_2" index="2" speed="13.89" length="27.20" shape="901.60,-13.60 901.60,13.60"/>
    </edge>
    <edge id=":J13_14" function="internal">
        <lane id=":J13_14_0" index="0" speed="10.36" length="5.01" shape="901.60,-13.60 900.89,-8.64"/>
    </edge>
    <edge id=":J13_22" function="internal">
        <lane id=":J13_22_0" index="0" speed="10.36" length="19.50" shape="900.89,-8.64 900.65,-6.95 897.80,-2.20 893.05,0.65 886.40,1.60"/>
    </edge>
    <edge id=":J13_15" function="internal">
        <lane id=":J13_15_0" index="0" speed="6.51" length="9.03" shape="886.40,-8.00 888.85,-8.35 890.60,-9.40 891.65,-11.15 892.00,-13.60"/>
    </edge>
    <edge id=":J13_16" function="internal">
        <lane id=":J13_16_0" index="0" speed="13.89" length="27.20" shape="886.40,-8.00 913.60,-8.00"/>
        <lane id=":J13_16_1" index="1" speed="13.89" length="27.20" shape="886.40,-4.80 913.60,-4.80"/>
        <lane id=":J13_16_2" index="2" speed="13.89" length="27.20" shape="886.40,-1.60 913.60,-1.60"/>
    </edge>
    <edge id=":J13_19" function="internal">
        <lane id=":J13_19_0" index="0" speed="10.36" length="5.01" shape="886.40,-1.60 891.36,-0.89"/>
    </edge>
    <edge id=":J13_23" function="internal">
        <lane id=":J13_23_0" index="0" speed="10.36" length="19.50" shape="891.36,-0.89 893.05,-0.65 897.80,2.20 900.65,6.95 901.60,13.60"/>
    </edge>
    <edge id=":J16_0" function="internal">
        <lane id=":J16_0_0" index="0" speed="7.00" length="14.02" shape="1200.00,-8.00 1206.00,-4.00 1208.00,0.00 1206.00,4.00 1200.00,8.00"/>
        <lane id=":J16_0_1" index="1" speed="5.58" length="14.02" shape="1200.00,-4.80 1203.60,-2.40 1204.80,0.00 1203.60,2.40 1200.00,4.80"/>
        <lane id=":J16_0_2" index="2" speed="3.65" length="14.02" shape="1200.00,-1.60 1201.20,-0.80 1201.60,0.00 1201.20,0.80 1200.00,1.60"/>
    </edge>
    <edge id=":J17_0" function="internal">
        <lane id=":J17_0_0" index="0" speed="7.00" length="14.02" shape="0.00,308.00 -6.00,304.00 -8.00,300.00 -6.00,296.00 0.00,292.00"/>
        <lane id=":J17_0_1" index="1" speed="5.58" length="14.02" shape="0.00,304.80 -3.60,302.40 -4.80,300.00 -3.60,297.60 0.00,295.20"/>
        <lane id=":J17_0_2" index="2" speed="3.65" length="14.02" shape="0.00,301.60 -1.20,300.80 -1.60,300.00 -1.20,299.20 0.00,298.40"/>
    </edge>
    <edge id=":J18_0" function="internal">
        <lane id=":J18_0_0" index="0" speed="6.51" length="9.04" shape="492.00,313.61 491.65,311.15 490.60,309.40 488.85,308.35 486.40,308.00"/>
    </edge>
    <edge id=":J18_1" function="internal">
        <lane id=":J18_1_0" index="0" speed="13.89" length="27.20" shape="492.00,313.61 492.00,286.40"/>
        <lane id=":J18_1_1" index="1" speed="13.89" length="27.20" shape="495.20,313.60 495.20,286.40"/>
        <lane id=":J18_1_2" index="2" speed="13.89" length="27.20" shape="498.40,313.60 498.40,286.40"/>
    </edge>
    <edge id=":J18_4" function="internal">
        <lane id=":J18_4_0" index="0" speed="10.36" length="5.04" shape="498.40,313.60 499.11,308.61"/>
    </edge>
    <edge id=":J18_20" function="internal">
        <lane id=":J18_20_0" index="0" speed="10.36" length="19.48" shape="499.11,308.61 499.35,306.95 502.20,302.20 506.95,299.35 513.60,298.40"/>
    </edge>
    <edge id=":J18_5" function="internal">
        <lane id=":J18_5_0" index="0" speed="6.51" length="9.03" shape="513.60,308.00 511.15,308.35 509.40,309.40 508.35,311.15 508.00,313.60"/>
    </edge>
    <edge id=":J18_6" function="internal">
        <lane id=":J18_6_0" index="0" speed="13.89" length="27.20" shape="513.60,308.00 486.40,308.00"/>
        <lane id=":J18_6_1" index="1" speed="13.89" length="27.20" shape="513.60,304.80 486.40,304.80"/>
        <lane id=":J18_6_2" index="2" speed="13.89" length="27.20" shape="513.60,301.60 486.40,301.60"/>
    </edge>
    <edge id=":J18_9" function="internal">
        <lane id=":J18_9_0" index="0" speed="10.36" length="5.01" shape="513.60,301.60 508.64,300.89"/>
    </edge>
    <edge id=":J18_21" function="internal">
        <lane id=":J18_21_0" index="0" speed="10.36" length="19.50" shape="508.64,300.89 506.95,300.65 502.20,297.80 499.35,293.05 498.40,286.40"/>
    </edge>
    <edge id=":J18_10" function="internal">
        <lane id=":J18_10_0" index="0" speed="6.51" length="9.03" shape="508.00,286.40 508.35,288.85 509.40,290.60 511.15,291.65 513.60,292.00"/>
    </edge>
    <edge id=":J18_11" function="internal">
        <lane id=":J18_11_0" index="0" speed="13.89" length="27.20" shape="508.00,286.40 508.00,313.60"/>
        <lane id=":J18_11_1" index="1" speed="13.89" length="27.20" shape="504.80,286.40 504.80,313.60"/>
        <lane id=":J18_11_2" index="2" speed="13.89" length="27.20" shape="501.60,286.40 501.60,313.60"/>
    </edge>
    <edge id=":J18_14" function="internal">
        <lane id=":J18_14_0" index="0" speed="10.36" length="5.01" shape="501.60,286.40 500.89,291.36"/>
    </edge>
    <edge id=":J18_22" function="internal">
        <lane id=":J18_22_0" index="0" speed="10.36" length="19.50" shape="500.89,291.36 500.65,293.05 497.80,297.80 493.05,300.65 486.40,301.60"/>
    </edge>
    <edge id=":J18_15" function="internal">
        <lane id=":J18_15_0" index="0" speed="6.51" length="9.03" shape="486.40,292.00 488.85,291.65 490.60,290.60 491.65,288.85 492.00,286.40"/>
    </edge>
    <edge id=":J18_16" function="internal">
        <lane id=":J18_16_0" index="0" speed="13.89" length="27.20" shape="486.40,292.00 513.60,292.00"/>
        <lane id=":J18_16_1" index="1" speed="13.89" length="27.20" shape="486.40,295.20 513.60,295.20"/>
        <lane id=":J18_16_2" index="2" speed="13.89" length="27.20" shape="486.40,298.40 513.60,298.40"/>
    </edge>
    <edge id=":J18_19" function="internal">
        <lane id=":J18_19_0" index="0" speed="10.37" length="5.01" shape="486.40,298.40 491.36,299.11"/>
    </edge>
    <edge id=":J18_23" function="internal">
        <lane id=":J18_23_0" index="0" speed="10.37" length="19.50" shape="491.36,299.11 493.05,299.35 497.80,302.20 500.65,306.95 501.60,313.60"/>
    </edge>
    <edge id=":J19_0" function="internal">
        <lane id=":J19_0_0" index="0" speed="6.51" length="9.03" shape="892.00,313.60 891.65,311.15 890.60,309.40 888.85,308.35 886.40,308.00"/>
    </edge>
    <edge id=":J19_1" function="internal">
        <lane id=":J19_1_0" index="0" speed="13.89" length="27.20" shape="892.00,313.60 892.00,286.40"/>
        <lane id=":J19_1_1" index="1" speed="13.89" length="27.20" shape="895.20,313.60 895.20,286.40"/>
        <lane id=":J19_1_2" index="2" speed="13.89" length="27.20" shape="898.40,313.60 898.40,286.40"/>
    </edge>
    <edge id=":J19_4" function="internal">
        <lane id=":J19_4_0" index="0" speed="10.36" length="5.01" shape="898.40,313.60 899.11,308.64"/>
    </edge>
    <edge id=":J19_20" function="internal">
        <lane id=":J19_20_0" index="0" speed="10.36" length="19.50" shape="899.11,308.64 899.35,306.95 902.20,302.20 906.95,299.35 913.60,298.40"/>
    </edge>
    <edge id=":J19_5" function="internal">
        <lane id=":J19_5_0" index="0" speed="6.51" length="9.03" shape="913.60,308.00 911.15,308.35 909.40,309.40 908.35,311.15 908.00,313.60"/>
    </edge>
    <edge id=":J19_6" function="internal">
        <lane id=":J19_6_0" index="0" speed="13.89" length="27.20" shape="913.60,308.00 886.40,308.00"/>
        <lane id=":J19_6_1" index="1" speed="13.89" length="27.20" shape="913.60,304.80 886.40,304.80"/>
        <lane id=":J19_6_2" index="2" speed="13.89" length="27.20" shape="913.60,301.60 886.40,301.60"/>
    </edge>
    <edge id=":J19_9" function="internal">
        <lane id=":J19_9_0" index="0" speed="10.36" length="5.01" shape="913.60,301.60 908.64,300.89"/>
    </edge>
    <edge id=":J19_21" function="internal">
        <lane id=":J19_21_0" index="0" speed="10.36" length="19.50" shape="908.64,300.89 906.95,300.65 902.20,297.80 899.35,293.05 898.40,286.40"/>
    </edge>
    <edge id=":J19_10" function="internal">
        <lane id=":J19_10_0" index="0" speed="6.51" length="9.03" shape="908.00,286.40 908.35,288.85 909.40,290.60 911.15,291.65 913.60,292.00"/>
    </edge>
    <edge id=":J19_11" function="internal">
        <lane id=":J19_11_0" index="0" speed="13.89" length="27.20" shape="908.00,286.40 908.00,313.60"/>
        <lane id=":J19_11_1" index="1" speed="13.89" length="27.20" shape="904.80,286.40 904.80,313.60"/>
        <lane id=":J19_11_2" index="2" speed="13.89" length="27.20" shape="901.60,286.40 901.60,313.60"/>
    </edge>
    <edge id=":J19_14" function="internal">
        <lane id=":J19_14_0" index="0" speed="10.36" length="5.01" shape="901.60,286.40 900.89,291.36"/>
    </edge>
    <edge id=":J19_22" function="internal">
        <lane id=":J19_22_0" index="0" speed="10.36" length="19.50" shape="900.89,291.36 900.65,293.05 897.80,297.80 893.05,300.65 886.40,301.60"/>
    </edge>
    <edge id=":J19_15" function="internal">
        <lane id=":J19_15_0" index="0" speed="6.51" length="9.03" shape="886.40,292.00 888.85,291.65 890.60,290.60 891.65,288.85 892.00,286.40"/>
    </edge>
    <edge id=":J19_16" function="internal">
        <lane id=":J19_16_0" index="0" speed="13.89" length="27.20" shape="886.40,292.00 913.60,292.00"/>
        <lane id=":J19_16_1" index="1" speed="13.89" length="27.20" shape="886.40,295.20 913.60,295.20"/>
        <lane id=":J19_16_2" index="2" speed="13.89" length="27.20" shape="886.40,298.40 913.60,298.40"/>
    </edge>
    <edge id=":J19_19" function="internal">
        <lane id=":J19_19_0" index="0" speed="10.36" length="5.01" shape="886.40,298.40 891.36,299.11"/>
    </edge>
    <edge id=":J19_23" function="internal">
        <lane id=":J19_23_0" index="0" speed="10.36" length="19.50" shape="891.36,299.11 893.05,299.35 897.80,302.20 900.65,306.95 901.60,313.60"/>
    </edge>
    <edge id=":J20_0" function="internal">
        <lane id=":J20_0_0" index="0" speed="7.00" length="14.02" shape="1200.00,292.00 1206.00,296.00 1208.00,300.00 1206.00,304.00 1200.00,308.00"/>
        <lane id=":J20_0_1" index="1" speed="5.58" length="14.02" shape="1200.00,295.20 1203.60,297.60 1204.80,300.00 1203.60,302.40 1200.00,304.80"/>
        <lane id=":J20_0_2" index="2" speed="3.65" length="14.02" shape="1200.00,298.40 1201.20,299.20 1201.60,300.00 1201.20,300.80 1200.00,301.60"/>
    </edge>
    <edge id=":J21_0" function="internal">
        <lane id=":J21_0_0" index="0" speed="7.00" length="14.02" shape="492.00,-300.00 496.00,-306.00 500.00,-308.00 504.00,-306.00 508.00,-300.00"/>
        <lane id=":J21_0_1" index="1" speed="5.58" length="14.02" shape="495.20,-300.00 497.60,-303.60 500.00,-304.80 502.40,-303.60 504.80,-300.00"/>
        <lane id=":J21_0_2" index="2" speed="3.65" length="14.02" shape="498.40,-300.00 499.20,-301.20 500.00,-301.60 500.80,-301.20 501.60,-300.00"/>
    </edge>
    <edge id=":J22_0" function="internal">
        <lane id=":J22_0_0" index="0" speed="7.00" length="14.02" shape="892.00,-300.00 896.00,-306.00 900.00,-308.00 904.00,-306.00 908.00,-300.00"/>
        <lane id=":J22_0_1" index="1" speed="5.58" length="14.02" shape="895.20,-300.00 897.60,-303.60 900.00,-304.80 902.40,-303.60 904.80,-300.00"/>
        <lane id=":J22_0_2" index="2" speed="3.65" length="14.02" shape="898.40,-300.00 899.20,-301.20 900.00,-301.60 900.80,-301.20 901.60,-300.00"/>
    </edge>
    <edge id=":J23_0" function="internal">
        <lane id=":J23_0_0" index="0" speed="7.02" length="14.17" shape="508.10,600.00 504.08,606.04 500.05,608.05 496.03,606.04 492.00,600.00"/>
        <lane id=":J23_0_1" index="1" speed="5.61" length="14.17" shape="504.90,600.00 502.48,603.64 500.05,604.85 497.63,603.64 495.20,600.00"/>
        <lane id=":J23_0_2" index="2" speed="3.69" length="14.17" shape="501.70,600.00 500.88,601.24 500.05,601.65 499.23,601.24 498.40,600.00"/>
    </edge>
    <edge id=":J25_0" function="internal">
        <lane id=":J25_0_0" index="0" speed="7.00" length="14.02" shape="908.00,600.00 904.00,606.00 900.00,608.00 896.00,606.00 892.00,600.00"/>
        <lane id=":J25_0_1" index="1" speed="5.58" length="14.02" shape="904.80,600.00 902.40,603.60 900.00,604.80 897.60,603.60 895.20,600.00"/>
        <lane id=":J25_0_2" index="2" speed="3.65" length="14.02" shape="901.60,600.00 900.80,601.20 900.00,601.60 899.20,601.20 898.40,600.00"/>
    </edge>

    <edge id="-E11" from="J12" to="J11" priority="-1">
        <lane id="-E11_0" index="0" speed="13.89" length="486.40" shape="486.40,8.00 0.00,8.00"/>
        <lane id="-E11_1" index="1" speed="13.89" length="486.40" shape="486.40,4.80 0.00,4.80"/>
        <lane id="-E11_2" index="2" speed="13.89" length="486.40" shape="486.40,1.60 0.00,1.60"/>
    </edge>
    <edge id="-E12" from="J13" to="J12" priority="-1">
        <lane id="-E12_0" index="0" speed="13.89" length="372.80" shape="886.40,8.00 513.60,8.00"/>
        <lane id="-E12_1" index="1" speed="13.89" length="372.80" shape="886.40,4.80 513.60,4.80"/>
        <lane id="-E12_2" index="2" speed="13.89" length="372.80" shape="886.40,1.60 513.60,1.60"/>
    </edge>
    <edge id="-E14" from="J16" to="J13" priority="-1">
        <lane id="-E14_0" index="0" speed="13.89" length="286.40" shape="1200.00,8.00 913.60,8.00"/>
        <lane id="-E14_1" index="1" speed="13.89" length="286.40" shape="1200.00,4.80 913.60,4.80"/>
        <lane id="-E14_2" index="2" speed="13.89" length="286.40" shape="1200.00,1.60 913.60,1.60"/>
    </edge>
    <edge id="-E15" from="J18" to="J17" priority="-1">
        <lane id="-E15_0" index="0" speed="13.89" length="486.40" shape="486.40,308.00 0.00,308.00"/>
        <lane id="-E15_1" index="1" speed="13.89" length="486.40" shape="486.40,304.80 0.00,304.80"/>
        <lane id="-E15_2" index="2" speed="13.89" length="486.40" shape="486.40,301.60 0.00,301.60"/>
    </edge>
    <edge id="-E16" from="J19" to="J18" priority="-1">
        <lane id="-E16_0" index="0" speed="13.89" length="372.80" shape="886.40,308.00 513.60,308.00"/>
        <lane id="-E16_1" index="1" speed="13.89" length="372.80" shape="886.40,304.80 513.60,304.80"/>
        <lane id="-E16_2" index="2" speed="13.89" length="372.80" shape="886.40,301.60 513.60,301.60"/>
    </edge>
    <edge id="-E17" from="J20" to="J19" priority="-1">
        <lane id="-E17_0" index="0" speed="13.89" length="286.40" shape="1200.00,308.00 913.60,308.00"/>
        <lane id="-E17_1" index="1" speed="13.89" length="286.40" shape="1200.00,304.80 913.60,304.80"/>
        <lane id="-E17_2" index="2" speed="13.89" length="286.40" shape="1200.00,301.60 913.60,301.60"/>
    </edge>
    <edge id="-E18" from="J12" to="J18" priority="-1">
        <lane id="-E18_0" index="0" speed="13.89" length="272.80" shape="508.00,13.60 508.00,286.40"/>
        <lane id="-E18_1" index="1" speed="13.89" length="272.80" shape="504.80,13.60 504.80,286.40"/>
        <lane id="-E18_2" index="2" speed="13.89" length="272.80" shape="501.60,13.60 501.60,286.40"/>
    </edge>
    <edge id="-E19" from="J13" to="J19" priority="-1">
        <lane id="-E19_0" index="0" speed="13.89" length="272.80" shape="908.00,13.60 908.00,286.40"/>
        <lane id="-E19_1" index="1" speed="13.89" length="272.80" shape="904.80,13.60 904.80,286.40"/>
        <lane id="-E19_2" index="2" speed="13.89" length="272.80" shape="901.60,13.60 901.60,286.40"/>
    </edge>
    <edge id="-E20" from="J21" to="J12" priority="-1">
        <lane id="-E20_0" index="0" speed="13.89" length="286.40" shape="508.00,-300.00 508.00,-13.60"/>
        <lane id="-E20_1" index="1" speed="13.89" length="286.40" shape="504.80,-300.00 504.80,-13.60"/>
        <lane id="-E20_2" index="2" speed="13.89" length="286.40" shape="501.60,-300.00 501.60,-13.60"/>
    </edge>
    <edge id="-E21" from="J22" to="J13" priority="-1">
        <lane id="-E21_0" index="0" speed="13.89" length="286.40" shape="908.00,-300.00 908.00,-13.60"/>
        <lane id="-E21_1" index="1" speed="13.89" length="286.40" shape="904.80,-300.00 904.80,-13.60"/>
        <lane id="-E21_2" index="2" speed="13.89" length="286.40" shape="901.60,-300.00 901.60,-13.60"/>
    </edge>
    <edge id="-E22" from="J23" to="J18" priority="-1">
        <lane id="-E22_0" index="0" speed="13.89" length="286.40" shape="492.00,600.00 492.00,313.61"/>
        <lane id="-E22_1" index="1" speed="13.89" length="286.40" shape="495.20,600.00 495.20,313.60"/>
        <lane id="-E22_2" index="2" speed="13.89" length="286.40" shape="498.40,600.00 498.40,313.60"/>
    </edge>
    <edge id="-E23" from="J25" to="J19" priority="-1">
        <lane id="-E23_0" index="0" speed="13.89" length="286.40" shape="892.00,600.00 892.00,313.60"/>
        <lane id="-E23_1" index="1" speed="13.89" length="286.40" shape="895.20,600.00 895.20,313.60"/>
        <lane id="-E23_2" index="2" speed="13.89" length="286.40" shape="898.40,600.00 898.40,313.60"/>
    </edge>
    <edge id="E11" from="J11" to="J12" priority="-1">
        <lane id="E11_0" index="0" speed="13.89" length="486.40" shape="0.00,-8.00 486.40,-8.00"/>
        <lane id="E11_1" index="1" speed="13.89" length="486.40" shape="0.00,-4.80 486.40,-4.80"/>
        <lane id="E11_2" index="2" speed="13.89" length="486.40" shape="0.00,-1.60 486.40,-1.60"/>
    </edge>
    <edge id="E12" from="J12" to="J13" priority="-1">
        <lane id="E12_0" index="0" speed="13.89" length="372.80" shape="513.60,-8.00 886.40,-8.00"/>
        <lane id="E12_1" index="1" speed="13.89" length="372.80" shape="513.60,-4.80 886.40,-4.80"/>
        <lane id="E12_2" index="2" speed="13.89" length="372.80" shape="513.60,-1.60 886.40,-1.60"/>
    </edge>
    <edge id="E14" from="J13" to="J16" priority="-1">
        <lane id="E14_0" index="0" speed="13.89" length="286.40" shape="913.60,-8.00 1200.00,-8.00"/>
        <lane id="E14_1" index="1" speed="13.89" length="286.40" shape="913.60,-4.80 1200.00,-4.80"/>
        <lane id="E14_2" index="2" speed="13.89" length="286.40" shape="913.60,-1.60 1200.00,-1.60"/>
    </edge>
    <edge id="E15" from="J17" to="J18" priority="-1">
        <lane id="E15_0" index="0" speed="13.89" length="486.40" shape="0.00,292.00 486.40,292.00"/>
        <lane id="E15_1" index="1" speed="13.89" length="486.40" shape="0.00,295.20 486.40,295.20"/>
        <lane id="E15_2" index="2" speed="13.89" length="486.40" shape="0.00,298.40 486.40,298.40"/>
    </edge>
    <edge id="E16" from="J18" to="J19" priority="-1">
        <lane id="E16_0" index="0" speed="13.89" length="372.80" shape="513.60,292.00 886.40,292.00"/>
        <lane id="E16_1" index="1" speed="13.89" length="372.80" shape="513.60,295.20 886.40,295.20"/>
        <lane id="E16_2" index="2" speed="13.89" length="372.80" shape="513.60,298.40 886.40,298.40"/>
    </edge>
    <edge id="E17" from="J19" to="J20" priority="-1">
        <lane id="E17_0" index="0" speed="13.89" length="286.40" shape="913.60,292.00 1200.00,292.00"/>
        <lane id="E17_1" index="1" speed="13.89" length="286.40" shape="913.60,295.20 1200.00,295.20"/>
        <lane id="E17_2" index="2" speed="13.89" length="286.40" shape="913.60,298.40 1200.00,298.40"/>
    </edge>
    <edge id="E18" from="J18" to="J12" priority="-1">
        <lane id="E18_0" index="0" speed="13.89" length="272.80" shape="492.00,286.40 492.00,13.60"/>
        <lane id="E18_1" index="1" speed="13.89" length="272.80" shape="495.20,286.40 495.20,13.60"/>
        <lane id="E18_2" index="2" speed="13.89" length="272.80" shape="498.40,286.40 498.40,13.60"/>
    </edge>
    <edge id="E19" from="J19" to="J13" priority="-1">
        <lane id="E19_0" index="0" speed="13.89" length="272.80" shape="892.00,286.40 892.00,13.60"/>
        <lane id="E19_1" index="1" speed="13.89" length="272.80" shape="895.20,286.40 895.20,13.60"/>
        <lane id="E19_2" index="2" speed="13.89" length="272.80" shape="898.40,286.40 898.40,13.60"/>
    </edge>
    <edge id="E20" from="J12" to="J21" priority="-1">
        <lane id="E20_0" index="0" speed="13.89" length="286.40" shape="492.00,-13.60 492.00,-300.00"/>
        <lane id="E20_1" index="1" speed="13.89" length="286.40" shape="495.20,-13.60 495.20,-300.00"/>
        <lane id="E20_2" index="2" speed="13.89" length="286.40" shape="498.40,-13.60 498.40,-300.00"/>
    </edge>
    <edge id="E21" from="J13" to="J22" priority="-1">
        <lane id="E21_0" index="0" speed="13.89" length="286.40" shape="892.00,-13.60 892.00,-300.00"/>
        <lane id="E21_1" index="1" speed="13.89" length="286.40" shape="895.20,-13.60 895.20,-300.00"/>
        <lane id="E21_2" index="2" speed="13.89" length="286.40" shape="898.40,-13.60 898.40,-300.00"/>
    </edge>
    <edge id="E22" from="J18" to="J23" priority="-1" shape="500.00,300.00 500.10,600.10">
        <lane id="E22_0" index="0" speed="13.89" length="286.40" shape="508.00,313.60 508.10,600.00"/>
        <lane id="E22_1" index="1" speed="13.89" length="286.40" shape="504.80,313.60 504.90,600.00"/>
        <lane id="E22_2" index="2" speed="13.89" length="286.40" shape="501.60,313.60 501.70,600.00"/>
    </edge>
    <edge id="E23" from="J19" to="J25" priority="-1">
        <lane id="E23_0" index="0" speed="13.89" length="286.40" shape="908.00,313.60 908.00,600.00"/>
        <lane id="E23_1" index="1" speed="13.89" length="286.40" shape="904.80,313.60 904.80,600.00"/>
        <lane id="E23_2" index="2" speed="13.89" length="286.40" shape="901.60,313.60 901.60,600.00"/>
    </edge>

    <tlLogic id="J12" type="actuated" programID="0" offset="0">
        <phase duration="20" state="GGGGgrrrrrGGGGgrrrrr" minDur="15" maxDur="30"/>
        <phase duration="10" state="rrrrrGGGGgrrrrrGGGGg" minDur="15" maxDur="30"/>
    </tlLogic>
    <tlLogic id="J13" type="actuated" programID="0" offset="5">
        <phase duration="20" state="GGGGgrrrrrGGGGgrrrrr" minDur="15" maxDur="30"/>