<routes>
<vType id="type0" accel="2" decel="2" sigma="0" length="5" maxSpeed="11" minGap="2" />
<route id="route0" edges="E0 E1"/>
<vehicle id="0" type="type0" route="route0" depart="21" color="red" />
</routes>